Version 4
SHEET 1 1160 680
WIRE 320 -112 176 -112
WIRE 496 -112 320 -112
WIRE 624 -112 496 -112
WIRE 720 -112 624 -112
WIRE 624 -80 624 -112
WIRE 320 -64 320 -112
WIRE 496 -64 496 -112
WIRE 112 -48 -112 -48
WIRE 176 -48 176 -112
WIRE 176 -48 112 -48
WIRE 432 -16 368 -16
WIRE 720 16 720 -112
WIRE -112 32 -112 -48
WIRE 1056 48 784 48
WIRE 496 64 496 32
WIRE 624 64 624 -16
WIRE 624 64 496 64
WIRE 1056 80 1056 48
WIRE 112 96 112 -48
WIRE 176 96 176 -48
WIRE 496 112 496 64
WIRE -112 128 -112 112
WIRE 80 128 -112 128
WIRE 624 128 624 64
WIRE -112 144 -112 128
WIRE 256 144 208 144
WIRE 784 144 784 48
WIRE 80 160 32 160
WIRE 1056 176 1056 160
WIRE 1056 176 1024 176
WIRE 1104 176 1056 176
WIRE 32 192 32 160
WIRE 80 192 32 192
WIRE 1024 192 1024 176
WIRE 1104 192 1104 176
WIRE -112 240 -112 224
WIRE 32 240 32 192
WIRE 32 240 -112 240
WIRE 112 240 112 208
WIRE 496 240 496 192
WIRE -112 256 -112 240
WIRE 1024 288 1024 272
WIRE 1072 288 1024 288
WIRE 1104 288 1104 256
WIRE 1104 288 1072 288
WIRE 784 320 784 224
WIRE 1072 320 1072 288
WIRE 1072 320 784 320
WIRE -112 368 -112 320
WIRE 64 368 -112 368
WIRE 112 368 112 304
WIRE 112 368 64 368
WIRE 176 368 176 208
WIRE 176 368 112 368
WIRE 320 368 320 192
WIRE 320 368 176 368
WIRE 496 368 496 304
WIRE 496 368 320 368
WIRE 624 368 624 208
WIRE 624 368 496 368
WIRE 64 400 64 368
FLAG 64 400 0
FLAG 720 96 0
SYMBOL ICM7555 96 160 R0
SYMATTR InstName U1
SYMBOL res -128 16 R0
SYMATTR InstName R1
SYMATTR Value 160k
SYMBOL res -128 128 R0
SYMATTR InstName R2
SYMATTR Value 3k
SYMBOL cap -128 256 R0
SYMATTR InstName C1
SYMATTR Value 100n
SYMBOL cap 96 240 R0
SYMATTR InstName C2
SYMATTR Value .01µ
SYMBOL voltage 720 0 R0
WINDOW 123 0 0 Left 0
WINDOW 39 0 0 Left 0
SYMATTR InstName V1
SYMATTR Value PWL(0 0 1m 3)
SYMBOL pnp 256 192 M180
SYMATTR InstName Q1
SYMATTR Value BC327-40
SYMBOL pnp 432 32 M180
SYMATTR InstName Q2
SYMATTR Value BC327-40
SYMBOL res 304 0 R0
SYMATTR InstName R3
SYMATTR Value 2.2k
SYMBOL pot 304 -80 R0
WINDOW 3 -71 76 Left 2
SYMATTR InstName U2
SYMATTR Value Rtot=4.7K wiper=.15
SYMBOL res 480 96 R0
SYMATTR InstName R4
SYMATTR Value 100
SYMBOL diode 640 -16 R180
WINDOW 0 24 64 Left 2
WINDOW 3 24 0 Left 2
SYMATTR InstName D1
SYMATTR Value 1N4007
SYMBOL LED 480 240 R0
SYMATTR InstName D2
SYMBOL ind2 608 112 R0
SYMATTR InstName L1
SYMATTR Value 1m
SYMATTR Type ind
SYMBOL ind2 768 128 R0
SYMATTR InstName L2
SYMATTR Value 336m
SYMATTR Type ind
SYMBOL res 1040 64 R0
SYMATTR InstName R5
SYMATTR Value 400
SYMBOL res 1008 176 R0
SYMATTR InstName R6
SYMATTR Value 1k
SYMBOL cap 1088 192 R0
SYMATTR InstName C3
SYMATTR Value 10µ
TEXT -32 -112 Left 2 !.tran .25
TEXT 664 264 Left 2 !k1 L1 L2 1
TEXT 920 -72 Left 2 !.inc pot.sub
