The following are the models for the BC327 bjt and 1N4007 diode, please add the text into the following files:

User/username/AppData/Local/LTspice/lib/cmp/standard.bjt: (paste below into file on the left)

.MODEL BC327 PNP (IS=10.0029F BF=402.001 NF=994.875M VAF=100 IKF=991.671M
+ ISE=1.218485E-022 NE=2.14585 BR=101.214M IKR=1.00622 ISC=1.218700E-019
+ RE=360.928M RC=743.15M CJE=2P MJE=500M CJC=50.3851P VJC=700M MJC=558.066M
+ TF=501.007P XTF=499.987M VTF=10 ITF=10.0724M TR=10N )

.MODEL BC327_16 PNP (IS=10.0029F BF=200 NF=994.875M VAF=100 IKF=1 ISE=1.00711P
+ NE=1.77268 BR=99.8943M IKR=999.997M ISC=666.826F RE=360.928M RC=740.49M
+ CJE=2P MJE=500M CJC=50.3851P VJC=700M MJC=558.066M TF=501.053P XTF=500.005M
+ VTF=10 ITF=10.0738M TR=10N )

.MODEL BC327_25 PNP (IS=10.0029F BF=307.467 NF=994.875M VAF=100 IKF=1.02438
+ ISE=2.093469E-020 NE=1.17204 BR=101.222M IKR=1.00524 ISC=1.762216E-020
+ RE=360.928M RC=743.144M CJE=2P MJE=500M CJC=50.3851P VJC=700M MJC=558.066M
+ TF=501.007P XTF=499.987M VTF=10 ITF=10.0724M TR=10N )

.MODEL BC327_40 PNP (IS=10.0029F BF=482.999 NF=994.875M VAF=100 IKF=1.02836
+ ISE=1.854411E-020 NE=1.14573 BR=100.389M IKR=1 ISC=1.14895P RE=360.928M
+ RC=743.745M CJE=2P MJE=500M CJC=50.3851P VJC=700M MJC=558.066M TF=500.996P
+ XTF=499.989M VTF=10 ITF=10.0723M TR=10N )

.MODEL BC327A PNP (IS=9.9972F BF=220.347 NF=998.951M VAF=100 IKF=300.088M
+ ISE=2.792960E-021 NE=1.00829 BR=102.822M IKR=820.792M ISC=7.01346F
+ RC=83.1496M CJE=2P MJE=500M CJC=36.6437P VJC=700M MJC=558.066M TF=1.41994N
+ XTF=500M VTF=10 ITF=9.99711M TR=10N )




User/username/AppData/Local/LTspice/lib/cmp/standard.dio: (paste below into file on the left)

.model 1N4007 D(Is=90p Rs=40m Cjo=30p N=1.4 TT=5u Iave=1 Vpk=1000 mfg=Diodes_Inc. type=silicon)

